FoamFile
{
    version     2.0;
    format      ascii;
    class       dictionary;
    object      fvSolution;
}

solvers
{
    T
    {
        solver          PCG;
        preconditioner   DIC;
        tolerance        1e-06;
        relTol           0;
    }
}

PISO
{
    nCorrectors     2;
    nNonOrthogonalCorrectors 0;
}

//********************************** caesar wiratama ************************************ //
//************************************ pttensor.com ************************************ //
