FoamFile
{
    version     2.0;
    format      ascii;
    class       volScalarField;
    object      T;
}

dimensions      [0 0 0 1 0 0 0];
internalField   uniform 300;  // Initial value of T
boundaryField
{
   sideA
    {
        type            fixedValue;
        value           uniform 400;
    }

    sideB
    {
        type            fixedValue;
        value           uniform 300;
    }
    
    walls
    {
	type		zeroGradient;
    }
}

//********************************** caesar wiratama ************************************ //
//************************************ pttensor.com ************************************ //
